
  EPA STORM WATER MANAGEMENT MODEL - VERSION 5.1 (Build 5.3.0.dev0)
  --------------------------------------------------------------

  
  *************
  Element Count
  *************
  Number of rain gages ...... 1
  Number of subcatchments ... 63
  Number of nodes ........... 8
  Number of links ........... 7
  Number of pollutants ...... 0
  Number of land uses ....... 0
  
  
  ****************
  Raingage Summary
  ****************
                                                      Data       Recording
  Name                 Data Source                    Type       Interval 
  ------------------------------------------------------------------------
  RG_CAE               /home/davide/swmm/CAE-Chicago2Y.txt
  
  
  ********************
  Subcatchment Summary
  ********************
  Name                       Area     Width   %Imperv    %Slope Rain Gage            Outlet              
  -----------------------------------------------------------------------------------------------------------
  G10N2                      0.01     13.58     10.00    2.0000 RG_CAE               10                  
  M9                         0.01     48.56     80.00    4.0000 RG_CAE               9                   
  T10-N                      0.02     24.31    100.00   20.0000 RG_CAE               10                  
  T11-N                      0.02     24.75    100.00   20.0000 RG_CAE               11                  
  T9                         0.03     24.74    100.00   20.0000 RG_CAE               9                   
  G9                         0.04     54.79     10.00    2.0000 RG_CAE               9                   
  G91                        0.01     11.20     10.00    2.0000 RG_CAE               9                   
  T10-S                      0.02     21.75    100.00   20.0000 RG_CAE               10                  
  G92                        0.01     13.64     10.00    2.0000 RG_CAE               9                   
  G10N1                      0.01     12.01     10.00    2.0000 RG_CAE               10                  
  M11                        0.00     26.72     80.00    4.5000 RG_CAE               11                  
  PD10                       0.02     23.87     30.00   10.7000 RG_CAE               10                  
  PD11                       0.02     27.77     30.00    2.1000 RG_CAE               11                  
  G10N                       0.05     39.40     25.00    2.0000 RG_CAE               10                  
  T11-S                      0.02     21.60    100.00   20.0000 RG_CAE               11                  
  S4                         0.02     35.27    100.00    8.1000 RG_CAE               12                  
  S6                         0.03     50.88    100.00    4.6000 RG_CAE               9                   
  S5                         0.03     30.62    100.00    5.9000 RG_CAE               10                  
  G11S                       0.02     35.42     25.00    2.0000 RG_CAE               12                  
  G11N1                      0.01     13.90     10.00    2.0000 RG_CAE               11                  
  M13W                       0.00      3.18     80.00    2.1000 RG_CAE               13                  
  G11N2                      0.01     13.21     10.00    2.0000 RG_CAE               11                  
  G11N                       0.02     27.62     10.00    2.0000 RG_CAE               11                  
  M10                        0.01     29.12     80.00    4.6000 RG_CAE               10                  
  AG10W                      0.02     12.74     80.00    0.5000 RG_CAE               10                  
  AG10E                      0.01      8.63     80.00    0.5000 RG_CAE               10                  
  AG11W                      0.01      9.73     80.00    0.5000 RG_CAE               11                  
  G11S1                      0.00      9.69     10.00    2.0000 RG_CAE               11                  
  G10S1                      0.00      9.56     10.00    2.0000 RG_CAE               10                  
  G10S2                      0.00      9.16     10.00    2.0000 RG_CAE               10                  
  G10S                       0.05     36.88     25.00    2.0000 RG_CAE               10                  
  M11S                       0.00      5.46     80.00    5.2000 RG_CAE               11                  
  AG11S                      0.02     27.47     80.00    0.5000 RG_CAE               11                  
  M10S                       0.00      4.34     80.00    3.6000 RG_CAE               10                  
  AG10S                      0.01     11.11     80.00    0.5000 RG_CAE               10                  
  AG9                        0.01      9.18     80.00    0.5000 RG_CAE               9                   
  S1                         0.03     15.01    100.00    3.4000 RG_CAE               13                  
  S2                         0.05     35.63    100.00    3.2000 RG_CAE               16                  
  PD15                       0.02     10.47     40.00    1.9000 RG_CAE               15                  
  T13                        0.03     15.62    100.00   20.0000 RG_CAE               13                  
  T12-S                      0.02     21.39    100.00   20.0000 RG_CAE               12                  
  T12-N                      0.02     24.74    100.00   20.0000 RG_CAE               12                  
  G12S                       0.05     37.01     20.00    2.0000 RG_CAE               12                  
  AG13N                      0.01     20.41     80.00    0.5000 RG_CAE               13                  
  AG13S                      0.01     18.86     80.00    0.5000 RG_CAE               13                  
  G132                       0.01     10.68     10.00    2.0000 RG_CAE               13                  
  PD12                       0.03     38.58     10.00    1.5000 RG_CAE               12                  
  G12S1                      0.00      9.88     10.00    2.0000 RG_CAE               12                  
  G131                       0.01     10.86     10.00    2.0000 RG_CAE               13                  
  M13E                       0.00      9.60     80.00    6.4000 RG_CAE               13                  
  G12N                       0.05     53.59     10.00    2.0000 RG_CAE               12                  
  G12S2                      0.01     12.31     10.00    2.0000 RG_CAE               12                  
  G12N1                      0.01     13.19     10.00    2.0000 RG_CAE               12                  
  G12N2                      0.02     24.92     10.00    2.0000 RG_CAE               12                  
  S3                         0.03     48.24    100.00    8.0000 RG_CAE               13                  
  G11S2                      0.01     11.00     10.00    2.0000 RG_CAE               11                  
  AG11E                      0.02     11.64     80.00    0.5000 RG_CAE               11                  
  AG12E                      0.01     14.66     80.00    0.5000 RG_CAE               14                  
  AG12SW                     0.02     13.36     80.00    0.5000 RG_CAE               12                  
  M12N                       0.00     22.46     80.00    1.7000 RG_CAE               12                  
  M12S                       0.00     26.27     80.00    5.3000 RG_CAE               12                  
  AG13                       0.01     10.21     80.00    0.5000 RG_CAE               13                  
  G13                        0.06     36.97     10.00    2.0000 RG_CAE               13                  
  
  
  ************
  Node Summary
  ************
                                           Invert      Max.    Ponded    External
  Name                 Type                 Elev.     Depth      Area    Inflow  
  -------------------------------------------------------------------------------
  9                    JUNCTION              3.72      2.00       0.0    Yes
  15                   JUNCTION              2.20      2.50       0.0    Yes
  14                   JUNCTION              2.65      2.00       0.0    Yes
  13                   JUNCTION              2.23      2.50       0.0    Yes
  12                   JUNCTION              2.42      2.50       0.0    Yes
  11                   JUNCTION              2.91      2.00       0.0    Yes
  10                   JUNCTION              3.23      2.00       0.0    Yes
  16                   OUTFALL               2.00      0.65       0.0
  
  
  ************
  Link Summary
  ************
  Name             From Node        To Node          Type            Length    %Slope Roughness
  ---------------------------------------------------------------------------------------------
  24               11               12               CONDUIT           31.2    0.3205    0.0140
  23               15               16               CONDUIT           60.3    0.1659    0.0140
  22               13               15               CONDUIT           55.6    0.5399    0.0140
  21               14               13               CONDUIT           16.0    0.6252    0.0140
  20               12               13               CONDUIT           24.5    0.5720    0.0140
  18               10               11               CONDUIT           43.1    0.6259    0.0140
  17               9                10               CONDUIT           33.8    1.4491    0.0140
  
  
  *********************
  Cross Section Summary
  *********************
                                        Full     Full     Hyd.     Max.   No. of     Full
  Conduit          Shape               Depth     Area     Rad.    Width  Barrels     Flow
  ---------------------------------------------------------------------------------------
  24               CIRCULAR             0.40     0.13     0.10     0.40        1   109.49
  23               CIRCULAR             0.50     0.20     0.12     0.50        1   142.84
  22               CIRCULAR             0.50     0.20     0.12     0.50        1   257.66
  21               CIRCULAR             0.30     0.07     0.07     0.30        1    71.00
  20               CIRCULAR             0.40     0.13     0.10     0.40        1   146.26
  18               CIRCULAR             0.40     0.13     0.10     0.40        1   153.00
  17               CIRCULAR             0.30     0.07     0.07     0.30        1   108.10
  
  
  
  *********************
  Rainfall File Summary
  *********************
  Station    First        Last         Recording   Periods    Periods    Periods
  ID         Date         Date         Frequency  w/Precip    Missing    Malfunc.
  -------------------------------------------------------------------------------

  
  ERROR 317: cannot open rainfall data file /home/davide/swmm/CAE-Chicago2Y.txt.

  Analysis begun on:  Mon Feb 24 08:30:42 2020
  Analysis ended on:  Mon Feb 24 08:30:42 2020
  Total elapsed time: < 1 sec