
  EPA STORM WATER MANAGEMENT MODEL - VERSION 5.1 (Build 5.3.0.dev0)
  --------------------------------------------------------------

  
  *************
  Element Count
  *************
  Number of rain gages ...... 1
  Number of subcatchments ... 20
  Number of nodes ........... 13
  Number of links ........... 12
  Number of pollutants ...... 0
  Number of land uses ....... 0
  
  
  ****************
  Raingage Summary
  ****************
                                                      Data       Recording
  Name                 Data Source                    Type       Interval 
  ------------------------------------------------------------------------
  RG1                  /apps/pyswmm/data/CAE-Chicago10Y.txt
  
  
  ********************
  Subcatchment Summary
  ********************
  Name                       Area     Width   %Imperv    %Slope Rain Gage            Outlet              
  -----------------------------------------------------------------------------------------------------------
  R1                         0.04     50.00    100.00    0.8000 RG1                  9                   
  R2                         0.02     35.00    100.00    0.8000 RG1                  10                  
  R3                         0.04     50.00    100.00    0.8000 RG1                  11                  
  R4                         0.02     35.00    100.00    0.8000 RG1                  12                  
  R5                         0.04     50.00    100.00    0.8000 RG1                  13                  
  R6                         0.02     35.00    100.00    0.8000 RG1                  14                  
  S2                         0.15     35.00      8.00    0.8000 RG1                  10                  
  S3                         0.22     50.00      8.00    0.8000 RG1                  11                  
  S4                         0.15     35.00      8.00    0.8000 RG1                  12                  
  S5                         0.22     50.00      8.00    0.8000 RG1                  13                  
  S1                         0.22     50.00      8.00    0.8000 RG1                  9                   
  R7                         0.04     50.00    100.00    0.8000 RG1                  15                  
  R8                         0.03     35.00    100.00    0.8000 RG1                  16                  
  R9                         0.07     50.00    100.00    0.3000 RG1                  17                  
  R10                        0.07     50.00    100.00    0.3000 RG1                  18                  
  R11                        0.07     50.00    100.00    0.3000 RG1                  19                  
  R12                        0.07     50.00    100.00    0.3000 RG1                  20                  
  S6                         0.15     35.00      8.00    0.8000 RG1                  14                  
  S7                         0.22     50.00      8.00    0.8000 RG1                  15                  
  S8                         0.15     35.00      8.00    0.8000 RG1                  16                  


  *******************
  LID Control Summary
  *******************
                                   No. of        Unit        Unit      % Area    % Imperv      % Perv
  Subcatchment     LID Control      Units        Area       Width     Covered     Treated     Treated
  ---------------------------------------------------------------------------------------------------
  S2               TV                   1      451.50       15.00       30.00        0.00        0.00
  S2               PP                   2       76.00        5.00       10.10        0.00        0.00
  S3               TV                   2      322.00       11.50       29.95        0.00        0.00
  S3               PP                   3       72.00        5.00       10.05        0.00        0.00
  S4               TV                   1      451.50       15.00       30.00        0.00        0.00
  S4               PP                   2       76.00        5.00       10.10        0.00        0.00
  S5               TV                   2      322.00       11.50       29.95        0.00        0.00
  S5               PP                   3       72.00        5.00       10.05        0.00        0.00
  S1               TV                   2      322.00       11.50       29.95        0.00        0.00
  S1               PP                   3       72.00        5.00       10.05        0.00        0.00
  S6               TV                   1      451.50       15.00       30.00        0.00        0.00
  S6               PP                   2       76.00        5.00       10.10        0.00        0.00
  S7               TV                   2      322.00       11.50       29.95        0.00        0.00
  S7               PP                   3       72.00        5.00       10.05        0.00        0.00
  S8               TV                   1      451.50       15.00       30.00        0.00        0.00
  S8               PP                   2       76.00        5.00       10.10        0.00        0.00
  
  
  ************
  Node Summary
  ************
                                           Invert      Max.    Ponded    External
  Name                 Type                 Elev.     Depth      Area    Inflow  
  -------------------------------------------------------------------------------
  10                   JUNCTION             98.20      1.40       0.0    Yes
  11                   JUNCTION             98.20      1.65       0.0    Yes
  12                   JUNCTION             98.20      1.25       0.0    Yes
  13                   JUNCTION             98.20      1.50       0.0    Yes
  14                   JUNCTION             98.20      1.10       0.0    Yes
  15                   JUNCTION             98.20      1.35       0.0    Yes
  16                   JUNCTION             98.20      0.95       0.0    Yes
  17                   JUNCTION             97.00      2.20       0.0    Yes
  18                   JUNCTION             97.00      2.05       0.0    Yes
  19                   JUNCTION             97.00      1.90       0.0    Yes
  20                   JUNCTION             97.00      1.75       0.0    Yes
  9                    JUNCTION             98.20      1.80       0.0    Yes
  21                   OUTFALL              97.00      0.70       0.0
  
  
  ************
  Link Summary
  ************
  Name             From Node        To Node          Type            Length    %Slope Roughness
  ---------------------------------------------------------------------------------------------
  22               9                10               CONDUIT           50.0    0.8000    0.0120
  23               11               12               CONDUIT           50.0    0.8000    0.0120
  24               13               14               CONDUIT           50.0    0.8000    0.0120
  25               15               16               CONDUIT           50.0    0.8000    0.0120
  26               10               17               CONDUIT           50.0    0.8000    0.0120
  27               12               18               CONDUIT           50.0    0.8000    0.0120
  28               14               19               CONDUIT           50.0    0.8000    0.0120
  29               16               20               CONDUIT           50.0    0.8000    0.0120
  30               17               18               CONDUIT           50.0    0.3000    0.0120
  31               18               19               CONDUIT           50.0    0.3000    0.0120
  32               19               20               CONDUIT           50.0    0.3000    0.0120
  33               20               21               CONDUIT           50.0    0.3000    0.0120
  
  
  *********************
  Cross Section Summary
  *********************
                                        Full     Full     Hyd.     Max.   No. of     Full
  Conduit          Shape               Depth     Area     Rad.    Width  Barrels     Flow
  ---------------------------------------------------------------------------------------
  22               CIRCULAR             0.30     0.07     0.07     0.30        1    93.71
  23               CIRCULAR             0.30     0.07     0.07     0.30        1    93.71
  24               CIRCULAR             0.30     0.07     0.07     0.30        1    93.71
  25               CIRCULAR             0.30     0.07     0.07     0.30        1    93.71
  26               CIRCULAR             0.40     0.13     0.10     0.40        1   201.81
  27               CIRCULAR             0.40     0.13     0.10     0.40        1   201.81
  28               CIRCULAR             0.40     0.13     0.10     0.40        1   201.81
  29               CIRCULAR             0.40     0.13     0.10     0.40        1   201.81
  30               CIRCULAR             0.50     0.20     0.12     0.50        1   224.07
  31               CIRCULAR             0.50     0.20     0.12     0.50        1   224.07
  32               CIRCULAR             0.60     0.28     0.15     0.60        1   364.36
  33               CIRCULAR             0.70     0.38     0.17     0.70        1   549.61
  
  